* 
* Copyright 2018 by Artisan Components, Inc.
* This file has been provided pursuant to a License Agreement
* containing restrictions on its use.  This file contains valuable
* trade secrets and proprietary information of Artisan Components,
* Inc. and is protected by law.
* 
* Generated by bif2cdl v3.3g
* Version: 2006Q4V1
* Name: High Speed/Density Single Port SRAM Generator|CL018HV Process
* Comment: 
* Configuration:  -instname "RA1SHD_2048x32M8" -words 2048 -bits 32\
* Configuration:  -frequency 100 -ring_width 2 -mux 8 -drive 12 -wr\
* Configuration: ite_mask on -wp_size 8 -top_layer met5 -power_type\
* Configuration:  rings -horiz met4 -vert met3 -cust_comment "" -le\
* Configuration: ft_bus_delim "[" -right_bus_delim "]" -pwr_gnd_ren\
* Configuration: ame "VDD:VDD,VSS:VSS" -prefix "" -pin_space 0.0 -n\
* Configuration: ame_case upper -check_instname on -diodes on -insi\
* Configuration: de_ring_type GND -asvm off
* Codefile: 
* 
*
** begin lvs.header
** $Revision: 1.2 $
*.SCALE meter
** end lvs.header
*.BIPOLAR
*.DIOAREA
*.DIOPERI
*
****
.SUBCKT RA1SHD_2048x32M8CCG BL BL_ WL WP VSS VDD
** RA1SHD_2048x32M8CCG: 6 flat devices **
m1 BL WP CORED VSS N L=0.265U W=0.22U AD=0.1272P PD=1.225U AS=0.1272P
+  PS=1.225U
m2 BL_ WP CORED_ VSS N L=0.265U W=0.22U AD=0.1272P PD=1.225U AS=0.1272P
+  PS=1.225U
m3 CORED_ CORED VDD VDD P L=0.2U W=0.215U AD=0.1032P PD=1.175U AS=0.1032P
+  PS=1.175U
m4 CORED_ CORED VSS VSS N L=0.18U W=0.27U AD=0.1296P PD=1.23U AS=0.1296P
+  PS=1.23U
m5 CORED CORED_ VDD VDD P L=0.2U W=0.215U AD=0.1032P PD=1.175U AS=0.1032P
+  PS=1.175U
m6 CORED CORED_ VSS VSS N L=0.18U W=0.27U AD=0.1296P PD=1.23U AS=0.1296P
+  PS=1.23U
.ENDS RA1SHD_2048x32M8CCG
****
.SUBCKT RA1SHD_2048x32M8FCR WLB WLT VSS VDD
** RA1SHD_2048x32M8FCR: 4 flat devices **
MM1 NWT1 WLB VSS VSS N AD=26F AS=70F L=0.265U PD=0.8U PS=1.9U W=80N
MM2 NWT2 WLT VSS VSS N AD=26F AS=70F L=0.265U PD=0.8U PS=1.9U W=80N
MM3 NWT3 WLB VSS VSS N AD=26F AS=70F L=0.265U PD=0.8U PS=1.9U W=80N
MM4 NWT4 WLT VSS VSS N AD=26F AS=70F L=0.265U PD=0.8U PS=1.9U W=80N
.ENDS RA1SHD_2048x32M8FCR
****
.SUBCKT RA1SHD_2048x32M8FCIO8 GTP OE_ WE VSS VDD
** RA1SHD_2048x32M8FCIO8: 3 flat devices **
d1 VSS GTP DN 0.2304P 2.32U
d2 VSS OE_ DN 0.2304P 2.32U
d3 VSS WE DN 0.2304P 2.32U
.ENDS RA1SHD_2048x32M8FCIO8
****
.SUBCKT RA1SHD_2048x32M8FCSA8 GTP VSS VDD
** RA1SHD_2048x32M8FCSA8: 1 flat devices **
d1 VSS GTP DN 0.2304P 2.32U
.ENDS RA1SHD_2048x32M8FCSA8
****
.SUBCKT RA1SHD_2048x32M8FCCDL A0 A0_ DR DR_ DW DW_ GTP VD YP0_0 YP0_1 YP0_2
+  YP0_3 YP1_0 YP1_1 YP1_2 YP1_3 VSS VDD
** RA1SHD_2048x32M8FCCDL: 1 flat devices **
m1 VDD VSS VD VDD P L=0.18U W=0.22U AD=0.1056P PD=1.18U AS=0.1056P PS=1.18U
.ENDS RA1SHD_2048x32M8FCCDL
****
.SUBCKT RA1SHD_2048x32M8FCUR VSS VDD
** RA1SHD_2048x32M8FCUR: 4 flat devices **
MM1 NWT1 VSS VSS VSS N AD=26F AS=70F L=0.265U PD=0.8U PS=1.9U W=80N
MM2 NWT2 VSS VSS VSS N AD=26F AS=70F L=0.265U PD=0.8U PS=1.9U W=80N
MM3 NWT3 VSS VSS VSS N AD=26F AS=70F L=0.265U PD=0.8U PS=1.9U W=80N
MM4 NWT4 VSS VSS VSS N AD=26F AS=70F L=0.265U PD=0.8U PS=1.9U W=80N
.ENDS RA1SHD_2048x32M8FCUR
****
.SUBCKT RA1SHD_2048x32M8LEFT_CAP A0 A0_ DR DR_ DW DW_ GTP_0 GTP_1 GTP_2 OE_ WE
+  WL_0 WL_1 WL_2 WL_3 WL_4 WL_5 WL_6 WL_7 WL_8 WL_9 WL_10 WL_11 WL_12 WL_13
+  WL_14 WL_15 WL_16 WL_17 WL_18 WL_19 WL_20 WL_21 WL_22 WL_23 WL_24 WL_25
+  WL_26 WL_27 WL_28 WL_29 WL_30 WL_31 WL_32 WL_33 WL_34 WL_35 WL_36 WL_37
+  WL_38 WL_39 WL_40 WL_41 WL_42 WL_43 WL_44 WL_45 WL_46 WL_47 WL_48 WL_49
+  WL_50 WL_51 WL_52 WL_53 WL_54 WL_55 WL_56 WL_57 WL_58 WL_59 WL_60 WL_61
+  WL_62 WL_63 WL_64 WL_65 WL_66 WL_67 WL_68 WL_69 WL_70 WL_71 WL_72 WL_73
+  WL_74 WL_75 WL_76 WL_77 WL_78 WL_79 WL_80 WL_81 WL_82 WL_83 WL_84 WL_85
+  WL_86 WL_87 WL_88 WL_89 WL_90 WL_91 WL_92 WL_93 WL_94 WL_95 WL_96 WL_97
+  WL_98 WL_99 WL_100 WL_101 WL_102 WL_103 WL_104 WL_105 WL_106 WL_107 WL_108
+  WL_109 WL_110 WL_111 WL_112 WL_113 WL_114 WL_115 WL_116 WL_117 WL_118
+  WL_119 WL_120 WL_121 WL_122 WL_123 WL_124 WL_125 WL_126 WL_127 WL_128
+  WL_129 WL_130 WL_131 WL_132 WL_133 WL_134 WL_135 WL_136 WL_137 WL_138
+  WL_139 WL_140 WL_141 WL_142 WL_143 WL_144 WL_145 WL_146 WL_147 WL_148
+  WL_149 WL_150 WL_151 WL_152 WL_153 WL_154 WL_155 WL_156 WL_157 WL_158
+  WL_159 WL_160 WL_161 WL_162 WL_163 WL_164 WL_165 WL_166 WL_167 WL_168
+  WL_169 WL_170 WL_171 WL_172 WL_173 WL_174 WL_175 WL_176 WL_177 WL_178
+  WL_179 WL_180 WL_181 WL_182 WL_183 WL_184 WL_185 WL_186 WL_187 WL_188
+  WL_189 WL_190 WL_191 WL_192 WL_193 WL_194 WL_195 WL_196 WL_197 WL_198
+  WL_199 WL_200 WL_201 WL_202 WL_203 WL_204 WL_205 WL_206 WL_207 WL_208
+  WL_209 WL_210 WL_211 WL_212 WL_213 WL_214 WL_215 WL_216 WL_217 WL_218
+  WL_219 WL_220 WL_221 WL_222 WL_223 WL_224 WL_225 WL_226 WL_227 WL_228
+  WL_229 WL_230 WL_231 WL_232 WL_233 WL_234 WL_235 WL_236 WL_237 WL_238
+  WL_239 WL_240 WL_241 WL_242 WL_243 WL_244 WL_245 WL_246 WL_247 WL_248
+  WL_249 WL_250 WL_251 WL_252 WL_253 WL_254 WL_255 YP0_0 YP0_1 YP0_2 YP0_3
+  YP1_0 YP1_1 YP1_2 YP1_3 VSS VDD
** RA1SHD_2048x32M8LEFT_CAP: 2069 flat devices **
XI0_0 GTP_0 OE_ WE VSS VDD RA1SHD_2048x32M8FCIO8
XI0_1 GTP_1 VSS VDD RA1SHD_2048x32M8FCSA8
XI0_10 BL BL WL_6 WL_6 VSS VDD RA1SHD_2048x32M8CCG
XI0_100 BL BL WL_96 WL_96 VSS VDD RA1SHD_2048x32M8CCG
XI0_101 BL BL WL_97 WL_97 VSS VDD RA1SHD_2048x32M8CCG
XI0_102 BL BL WL_98 WL_98 VSS VDD RA1SHD_2048x32M8CCG
XI0_103 BL BL WL_99 WL_99 VSS VDD RA1SHD_2048x32M8CCG
XI0_104 BL BL WL_100 WL_100 VSS VDD RA1SHD_2048x32M8CCG
XI0_105 BL BL WL_101 WL_101 VSS VDD RA1SHD_2048x32M8CCG
XI0_106 BL BL WL_102 WL_102 VSS VDD RA1SHD_2048x32M8CCG
XI0_107 BL BL WL_103 WL_103 VSS VDD RA1SHD_2048x32M8CCG
XI0_108 BL BL WL_104 WL_104 VSS VDD RA1SHD_2048x32M8CCG
XI0_109 BL BL WL_105 WL_105 VSS VDD RA1SHD_2048x32M8CCG
XI0_11 BL BL WL_7 WL_7 VSS VDD RA1SHD_2048x32M8CCG
XI0_110 BL BL WL_106 WL_106 VSS VDD RA1SHD_2048x32M8CCG
XI0_111 BL BL WL_107 WL_107 VSS VDD RA1SHD_2048x32M8CCG
XI0_112 BL BL WL_108 WL_108 VSS VDD RA1SHD_2048x32M8CCG
XI0_113 BL BL WL_109 WL_109 VSS VDD RA1SHD_2048x32M8CCG
XI0_114 BL BL WL_110 WL_110 VSS VDD RA1SHD_2048x32M8CCG
XI0_115 BL BL WL_111 WL_111 VSS VDD RA1SHD_2048x32M8CCG
XI0_116 BL BL WL_112 WL_112 VSS VDD RA1SHD_2048x32M8CCG
XI0_117 BL BL WL_113 WL_113 VSS VDD RA1SHD_2048x32M8CCG
XI0_118 BL BL WL_114 WL_114 VSS VDD RA1SHD_2048x32M8CCG
XI0_119 BL BL WL_115 WL_115 VSS VDD RA1SHD_2048x32M8CCG
XI0_12 BL BL WL_8 WL_8 VSS VDD RA1SHD_2048x32M8CCG
XI0_120 BL BL WL_116 WL_116 VSS VDD RA1SHD_2048x32M8CCG
XI0_121 BL BL WL_117 WL_117 VSS VDD RA1SHD_2048x32M8CCG
XI0_122 BL BL WL_118 WL_118 VSS VDD RA1SHD_2048x32M8CCG
XI0_123 BL BL WL_119 WL_119 VSS VDD RA1SHD_2048x32M8CCG
XI0_124 BL BL WL_120 WL_120 VSS VDD RA1SHD_2048x32M8CCG
XI0_125 BL BL WL_121 WL_121 VSS VDD RA1SHD_2048x32M8CCG
XI0_126 BL BL WL_122 WL_122 VSS VDD RA1SHD_2048x32M8CCG
XI0_127 BL BL WL_123 WL_123 VSS VDD RA1SHD_2048x32M8CCG
XI0_128 BL BL WL_124 WL_124 VSS VDD RA1SHD_2048x32M8CCG
XI0_129 BL BL WL_125 WL_125 VSS VDD RA1SHD_2048x32M8CCG
XI0_13 BL BL WL_9 WL_9 VSS VDD RA1SHD_2048x32M8CCG
XI0_130 BL BL WL_126 WL_126 VSS VDD RA1SHD_2048x32M8CCG
XI0_131 BL BL WL_127 WL_127 VSS VDD RA1SHD_2048x32M8CCG
XI0_132 BL BL WL_128 WL_128 VSS VDD RA1SHD_2048x32M8CCG
XI0_133 BL BL WL_129 WL_129 VSS VDD RA1SHD_2048x32M8CCG
XI0_134 BL BL WL_130 WL_130 VSS VDD RA1SHD_2048x32M8CCG
XI0_135 BL BL WL_131 WL_131 VSS VDD RA1SHD_2048x32M8CCG
XI0_136 BL BL WL_132 WL_132 VSS VDD RA1SHD_2048x32M8CCG
XI0_137 BL BL WL_133 WL_133 VSS VDD RA1SHD_2048x32M8CCG
XI0_138 BL BL WL_134 WL_134 VSS VDD RA1SHD_2048x32M8CCG
XI0_139 BL BL WL_135 WL_135 VSS VDD RA1SHD_2048x32M8CCG
XI0_14 BL BL WL_10 WL_10 VSS VDD RA1SHD_2048x32M8CCG
XI0_140 BL BL WL_136 WL_136 VSS VDD RA1SHD_2048x32M8CCG
XI0_141 BL BL WL_137 WL_137 VSS VDD RA1SHD_2048x32M8CCG
XI0_142 BL BL WL_138 WL_138 VSS VDD RA1SHD_2048x32M8CCG
XI0_143 BL BL WL_139 WL_139 VSS VDD RA1SHD_2048x32M8CCG
XI0_144 BL BL WL_140 WL_140 VSS VDD RA1SHD_2048x32M8CCG
XI0_145 BL BL WL_141 WL_141 VSS VDD RA1SHD_2048x32M8CCG
XI0_146 BL BL WL_142 WL_142 VSS VDD RA1SHD_2048x32M8CCG
XI0_147 BL BL WL_143 WL_143 VSS VDD RA1SHD_2048x32M8CCG
XI0_148 BL BL WL_144 WL_144 VSS VDD RA1SHD_2048x32M8CCG
XI0_149 BL BL WL_145 WL_145 VSS VDD RA1SHD_2048x32M8CCG
XI0_15 BL BL WL_11 WL_11 VSS VDD RA1SHD_2048x32M8CCG
XI0_150 BL BL WL_146 WL_146 VSS VDD RA1SHD_2048x32M8CCG
XI0_151 BL BL WL_147 WL_147 VSS VDD RA1SHD_2048x32M8CCG
XI0_152 BL BL WL_148 WL_148 VSS VDD RA1SHD_2048x32M8CCG
XI0_153 BL BL WL_149 WL_149 VSS VDD RA1SHD_2048x32M8CCG
XI0_154 BL BL WL_150 WL_150 VSS VDD RA1SHD_2048x32M8CCG
XI0_155 BL BL WL_151 WL_151 VSS VDD RA1SHD_2048x32M8CCG
XI0_156 BL BL WL_152 WL_152 VSS VDD RA1SHD_2048x32M8CCG
XI0_157 BL BL WL_153 WL_153 VSS VDD RA1SHD_2048x32M8CCG
XI0_158 BL BL WL_154 WL_154 VSS VDD RA1SHD_2048x32M8CCG
XI0_159 BL BL WL_155 WL_155 VSS VDD RA1SHD_2048x32M8CCG
XI0_16 BL BL WL_12 WL_12 VSS VDD RA1SHD_2048x32M8CCG
XI0_160 BL BL WL_156 WL_156 VSS VDD RA1SHD_2048x32M8CCG
XI0_161 BL BL WL_157 WL_157 VSS VDD RA1SHD_2048x32M8CCG
XI0_162 BL BL WL_158 WL_158 VSS VDD RA1SHD_2048x32M8CCG
XI0_163 BL BL WL_159 WL_159 VSS VDD RA1SHD_2048x32M8CCG
XI0_164 BL BL WL_160 WL_160 VSS VDD RA1SHD_2048x32M8CCG
XI0_165 BL BL WL_161 WL_161 VSS VDD RA1SHD_2048x32M8CCG
XI0_166 BL BL WL_162 WL_162 VSS VDD RA1SHD_2048x32M8CCG
XI0_167 BL BL WL_163 WL_163 VSS VDD RA1SHD_2048x32M8CCG
XI0_168 BL BL WL_164 WL_164 VSS VDD RA1SHD_2048x32M8CCG
XI0_169 BL BL WL_165 WL_165 VSS VDD RA1SHD_2048x32M8CCG
XI0_17 BL BL WL_13 WL_13 VSS VDD RA1SHD_2048x32M8CCG
XI0_170 BL BL WL_166 WL_166 VSS VDD RA1SHD_2048x32M8CCG
XI0_171 BL BL WL_167 WL_167 VSS VDD RA1SHD_2048x32M8CCG
XI0_172 BL BL WL_168 WL_168 VSS VDD RA1SHD_2048x32M8CCG
XI0_173 BL BL WL_169 WL_169 VSS VDD RA1SHD_2048x32M8CCG
XI0_174 BL BL WL_170 WL_170 VSS VDD RA1SHD_2048x32M8CCG
XI0_175 BL BL WL_171 WL_171 VSS VDD RA1SHD_2048x32M8CCG
XI0_176 BL BL WL_172 WL_172 VSS VDD RA1SHD_2048x32M8CCG
XI0_177 BL BL WL_173 WL_173 VSS VDD RA1SHD_2048x32M8CCG
XI0_178 BL BL WL_174 WL_174 VSS VDD RA1SHD_2048x32M8CCG
XI0_179 BL BL WL_175 WL_175 VSS VDD RA1SHD_2048x32M8CCG
XI0_18 BL BL WL_14 WL_14 VSS VDD RA1SHD_2048x32M8CCG
XI0_180 BL BL WL_176 WL_176 VSS VDD RA1SHD_2048x32M8CCG
XI0_181 BL BL WL_177 WL_177 VSS VDD RA1SHD_2048x32M8CCG
XI0_182 BL BL WL_178 WL_178 VSS VDD RA1SHD_2048x32M8CCG
XI0_183 BL BL WL_179 WL_179 VSS VDD RA1SHD_2048x32M8CCG
XI0_184 BL BL WL_180 WL_180 VSS VDD RA1SHD_2048x32M8CCG
XI0_185 BL BL WL_181 WL_181 VSS VDD RA1SHD_2048x32M8CCG
XI0_186 BL BL WL_182 WL_182 VSS VDD RA1SHD_2048x32M8CCG
XI0_187 BL BL WL_183 WL_183 VSS VDD RA1SHD_2048x32M8CCG
XI0_188 BL BL WL_184 WL_184 VSS VDD RA1SHD_2048x32M8CCG
XI0_189 BL BL WL_185 WL_185 VSS VDD RA1SHD_2048x32M8CCG
XI0_19 BL BL WL_15 WL_15 VSS VDD RA1SHD_2048x32M8CCG
XI0_190 BL BL WL_186 WL_186 VSS VDD RA1SHD_2048x32M8CCG
XI0_191 BL BL WL_187 WL_187 VSS VDD RA1SHD_2048x32M8CCG
XI0_192 BL BL WL_188 WL_188 VSS VDD RA1SHD_2048x32M8CCG
XI0_193 BL BL WL_189 WL_189 VSS VDD RA1SHD_2048x32M8CCG
XI0_194 BL BL WL_190 WL_190 VSS VDD RA1SHD_2048x32M8CCG
XI0_195 BL BL WL_191 WL_191 VSS VDD RA1SHD_2048x32M8CCG
XI0_196 BL BL WL_192 WL_192 VSS VDD RA1SHD_2048x32M8CCG
XI0_197 BL BL WL_193 WL_193 VSS VDD RA1SHD_2048x32M8CCG
XI0_198 BL BL WL_194 WL_194 VSS VDD RA1SHD_2048x32M8CCG
XI0_199 BL BL WL_195 WL_195 VSS VDD RA1SHD_2048x32M8CCG
XI0_2 A0 A0_ DR DR_ DW DW_ GTP_2 BL YP0_0 YP0_1 YP0_2 YP0_3 YP1_0 YP1_1 YP1_2
+  YP1_3 VSS VDD RA1SHD_2048x32M8FCCDL
XI0_20 BL BL WL_16 WL_16 VSS VDD RA1SHD_2048x32M8CCG
XI0_200 BL BL WL_196 WL_196 VSS VDD RA1SHD_2048x32M8CCG
XI0_201 BL BL WL_197 WL_197 VSS VDD RA1SHD_2048x32M8CCG
XI0_202 BL BL WL_198 WL_198 VSS VDD RA1SHD_2048x32M8CCG
XI0_203 BL BL WL_199 WL_199 VSS VDD RA1SHD_2048x32M8CCG
XI0_204 BL BL WL_200 WL_200 VSS VDD RA1SHD_2048x32M8CCG
XI0_205 BL BL WL_201 WL_201 VSS VDD RA1SHD_2048x32M8CCG
XI0_206 BL BL WL_202 WL_202 VSS VDD RA1SHD_2048x32M8CCG
XI0_207 BL BL WL_203 WL_203 VSS VDD RA1SHD_2048x32M8CCG
XI0_208 BL BL WL_204 WL_204 VSS VDD RA1SHD_2048x32M8CCG
XI0_209 BL BL WL_205 WL_205 VSS VDD RA1SHD_2048x32M8CCG
XI0_21 BL BL WL_17 WL_17 VSS VDD RA1SHD_2048x32M8CCG
XI0_210 BL BL WL_206 WL_206 VSS VDD RA1SHD_2048x32M8CCG
XI0_211 BL BL WL_207 WL_207 VSS VDD RA1SHD_2048x32M8CCG
XI0_212 BL BL WL_208 WL_208 VSS VDD RA1SHD_2048x32M8CCG
XI0_213 BL BL WL_209 WL_209 VSS VDD RA1SHD_2048x32M8CCG
XI0_214 BL BL WL_210 WL_210 VSS VDD RA1SHD_2048x32M8CCG
XI0_215 BL BL WL_211 WL_211 VSS VDD RA1SHD_2048x32M8CCG
XI0_216 BL BL WL_212 WL_212 VSS VDD RA1SHD_2048x32M8CCG
XI0_217 BL BL WL_213 WL_213 VSS VDD RA1SHD_2048x32M8CCG
XI0_218 BL BL WL_214 WL_214 VSS VDD RA1SHD_2048x32M8CCG
XI0_219 BL BL WL_215 WL_215 VSS VDD RA1SHD_2048x32M8CCG
XI0_22 BL BL WL_18 WL_18 VSS VDD RA1SHD_2048x32M8CCG
XI0_220 BL BL WL_216 WL_216 VSS VDD RA1SHD_2048x32M8CCG
XI0_221 BL BL WL_217 WL_217 VSS VDD RA1SHD_2048x32M8CCG
XI0_222 BL BL WL_218 WL_218 VSS VDD RA1SHD_2048x32M8CCG
XI0_223 BL BL WL_219 WL_219 VSS VDD RA1SHD_2048x32M8CCG
XI0_224 BL BL WL_220 WL_220 VSS VDD RA1SHD_2048x32M8CCG
XI0_225 BL BL WL_221 WL_221 VSS VDD RA1SHD_2048x32M8CCG
XI0_226 BL BL WL_222 WL_222 VSS VDD RA1SHD_2048x32M8CCG
XI0_227 BL BL WL_223 WL_223 VSS VDD RA1SHD_2048x32M8CCG
XI0_228 BL BL WL_224 WL_224 VSS VDD RA1SHD_2048x32M8CCG
XI0_229 BL BL WL_225 WL_225 VSS VDD RA1SHD_2048x32M8CCG
XI0_23 BL BL WL_19 WL_19 VSS VDD RA1SHD_2048x32M8CCG
XI0_230 BL BL WL_226 WL_226 VSS VDD RA1SHD_2048x32M8CCG
XI0_231 BL BL WL_227 WL_227 VSS VDD RA1SHD_2048x32M8CCG
XI0_232 BL BL WL_228 WL_228 VSS VDD RA1SHD_2048x32M8CCG
XI0_233 BL BL WL_229 WL_229 VSS VDD RA1SHD_2048x32M8CCG
XI0_234 BL BL WL_230 WL_230 VSS VDD RA1SHD_2048x32M8CCG
XI0_235 BL BL WL_231 WL_231 VSS VDD RA1SHD_2048x32M8CCG
XI0_236 BL BL WL_232 WL_232 VSS VDD RA1SHD_2048x32M8CCG
XI0_237 BL BL WL_233 WL_233 VSS VDD RA1SHD_2048x32M8CCG
XI0_238 BL BL WL_234 WL_234 VSS VDD RA1SHD_2048x32M8CCG
XI0_239 BL BL WL_235 WL_235 VSS VDD RA1SHD_2048x32M8CCG
XI0_24 BL BL WL_20 WL_20 VSS VDD RA1SHD_2048x32M8CCG
XI0_240 BL BL WL_236 WL_236 VSS VDD RA1SHD_2048x32M8CCG
XI0_241 BL BL WL_237 WL_237 VSS VDD RA1SHD_2048x32M8CCG
XI0_242 BL BL WL_238 WL_238 VSS VDD RA1SHD_2048x32M8CCG
XI0_243 BL BL WL_239 WL_239 VSS VDD RA1SHD_2048x32M8CCG
XI0_244 BL BL WL_240 WL_240 VSS VDD RA1SHD_2048x32M8CCG
XI0_245 BL BL WL_241 WL_241 VSS VDD RA1SHD_2048x32M8CCG
XI0_246 BL BL WL_242 WL_242 VSS VDD RA1SHD_2048x32M8CCG
XI0_247 BL BL WL_243 WL_243 VSS VDD RA1SHD_2048x32M8CCG
XI0_248 BL BL WL_244 WL_244 VSS VDD RA1SHD_2048x32M8CCG
XI0_249 BL BL WL_245 WL_245 VSS VDD RA1SHD_2048x32M8CCG
XI0_25 BL BL WL_21 WL_21 VSS VDD RA1SHD_2048x32M8CCG
XI0_250 BL BL WL_246 WL_246 VSS VDD RA1SHD_2048x32M8CCG
XI0_251 BL BL WL_247 WL_247 VSS VDD RA1SHD_2048x32M8CCG
XI0_252 BL BL WL_248 WL_248 VSS VDD RA1SHD_2048x32M8CCG
XI0_253 BL BL WL_249 WL_249 VSS VDD RA1SHD_2048x32M8CCG
XI0_254 BL BL WL_250 WL_250 VSS VDD RA1SHD_2048x32M8CCG
XI0_255 BL BL WL_251 WL_251 VSS VDD RA1SHD_2048x32M8CCG
XI0_256 BL BL WL_252 WL_252 VSS VDD RA1SHD_2048x32M8CCG
XI0_257 BL BL WL_253 WL_253 VSS VDD RA1SHD_2048x32M8CCG
XI0_258 BL BL WL_254 WL_254 VSS VDD RA1SHD_2048x32M8CCG
XI0_259 BL BL WL_255 WL_255 VSS VDD RA1SHD_2048x32M8CCG
XI0_26 BL BL WL_22 WL_22 VSS VDD RA1SHD_2048x32M8CCG
XI0_260 BL BL VSS VSS VSS VDD RA1SHD_2048x32M8CCG
XI0_261 BL BL VSS VSS VSS VDD RA1SHD_2048x32M8CCG
XI0_27 BL BL WL_23 WL_23 VSS VDD RA1SHD_2048x32M8CCG
XI0_28 BL BL WL_24 WL_24 VSS VDD RA1SHD_2048x32M8CCG
XI0_29 BL BL WL_25 WL_25 VSS VDD RA1SHD_2048x32M8CCG
XI0_30 BL BL WL_26 WL_26 VSS VDD RA1SHD_2048x32M8CCG
XI0_31 BL BL WL_27 WL_27 VSS VDD RA1SHD_2048x32M8CCG
XI0_32 BL BL WL_28 WL_28 VSS VDD RA1SHD_2048x32M8CCG
XI0_33 BL BL WL_29 WL_29 VSS VDD RA1SHD_2048x32M8CCG
XI0_34 BL BL WL_30 WL_30 VSS VDD RA1SHD_2048x32M8CCG
XI0_35 BL BL WL_31 WL_31 VSS VDD RA1SHD_2048x32M8CCG
XI0_36 BL BL WL_32 WL_32 VSS VDD RA1SHD_2048x32M8CCG
XI0_37 BL BL WL_33 WL_33 VSS VDD RA1SHD_2048x32M8CCG
XI0_38 BL BL WL_34 WL_34 VSS VDD RA1SHD_2048x32M8CCG
XI0_39 BL BL WL_35 WL_35 VSS VDD RA1SHD_2048x32M8CCG
XI0_4 BL BL WL_0 WL_0 VSS VDD RA1SHD_2048x32M8CCG
XI0_40 BL BL WL_36 WL_36 VSS VDD RA1SHD_2048x32M8CCG
XI0_41 BL BL WL_37 WL_37 VSS VDD RA1SHD_2048x32M8CCG
XI0_42 BL BL WL_38 WL_38 VSS VDD RA1SHD_2048x32M8CCG
XI0_43 BL BL WL_39 WL_39 VSS VDD RA1SHD_2048x32M8CCG
XI0_44 BL BL WL_40 WL_40 VSS VDD RA1SHD_2048x32M8CCG
XI0_45 BL BL WL_41 WL_41 VSS VDD RA1SHD_2048x32M8CCG
XI0_46 BL BL WL_42 WL_42 VSS VDD RA1SHD_2048x32M8CCG
XI0_47 BL BL WL_43 WL_43 VSS VDD RA1SHD_2048x32M8CCG
XI0_48 BL BL WL_44 WL_44 VSS VDD RA1SHD_2048x32M8CCG
XI0_49 BL BL WL_45 WL_45 VSS VDD RA1SHD_2048x32M8CCG
XI0_5 BL BL WL_1 WL_1 VSS VDD RA1SHD_2048x32M8CCG
XI0_50 BL BL WL_46 WL_46 VSS VDD RA1SHD_2048x32M8CCG
XI0_51 BL BL WL_47 WL_47 VSS VDD RA1SHD_2048x32M8CCG
XI0_52 BL BL WL_48 WL_48 VSS VDD RA1SHD_2048x32M8CCG
XI0_53 BL BL WL_49 WL_49 VSS VDD RA1SHD_2048x32M8CCG
XI0_54 BL BL WL_50 WL_50 VSS VDD RA1SHD_2048x32M8CCG
XI0_55 BL BL WL_51 WL_51 VSS VDD RA1SHD_2048x32M8CCG
XI0_56 BL BL WL_52 WL_52 VSS VDD RA1SHD_2048x32M8CCG
XI0_57 BL BL WL_53 WL_53 VSS VDD RA1SHD_2048x32M8CCG
XI0_58 BL BL WL_54 WL_54 VSS VDD RA1SHD_2048x32M8CCG
XI0_59 BL BL WL_55 WL_55 VSS VDD RA1SHD_2048x32M8CCG
XI0_6 BL BL WL_2 WL_2 VSS VDD RA1SHD_2048x32M8CCG
XI0_60 BL BL WL_56 WL_56 VSS VDD RA1SHD_2048x32M8CCG
XI0_61 BL BL WL_57 WL_57 VSS VDD RA1SHD_2048x32M8CCG
XI0_62 BL BL WL_58 WL_58 VSS VDD RA1SHD_2048x32M8CCG
XI0_63 BL BL WL_59 WL_59 VSS VDD RA1SHD_2048x32M8CCG
XI0_64 BL BL WL_60 WL_60 VSS VDD RA1SHD_2048x32M8CCG
XI0_65 BL BL WL_61 WL_61 VSS VDD RA1SHD_2048x32M8CCG
XI0_66 BL BL WL_62 WL_62 VSS VDD RA1SHD_2048x32M8CCG
XI0_67 BL BL WL_63 WL_63 VSS VDD RA1SHD_2048x32M8CCG
XI0_68 BL BL WL_64 WL_64 VSS VDD RA1SHD_2048x32M8CCG
XI0_69 BL BL WL_65 WL_65 VSS VDD RA1SHD_2048x32M8CCG
XI0_7 BL BL WL_3 WL_3 VSS VDD RA1SHD_2048x32M8CCG
XI0_70 BL BL WL_66 WL_66 VSS VDD RA1SHD_2048x32M8CCG
XI0_71 BL BL WL_67 WL_67 VSS VDD RA1SHD_2048x32M8CCG
XI0_72 BL BL WL_68 WL_68 VSS VDD RA1SHD_2048x32M8CCG
XI0_73 BL BL WL_69 WL_69 VSS VDD RA1SHD_2048x32M8CCG
XI0_74 BL BL WL_70 WL_70 VSS VDD RA1SHD_2048x32M8CCG
XI0_75 BL BL WL_71 WL_71 VSS VDD RA1SHD_2048x32M8CCG
XI0_76 BL BL WL_72 WL_72 VSS VDD RA1SHD_2048x32M8CCG
XI0_77 BL BL WL_73 WL_73 VSS VDD RA1SHD_2048x32M8CCG
XI0_78 BL BL WL_74 WL_74 VSS VDD RA1SHD_2048x32M8CCG
XI0_79 BL BL WL_75 WL_75 VSS VDD RA1SHD_2048x32M8CCG
XI0_8 BL BL WL_4 WL_4 VSS VDD RA1SHD_2048x32M8CCG
XI0_80 BL BL WL_76 WL_76 VSS VDD RA1SHD_2048x32M8CCG
XI0_81 BL BL WL_77 WL_77 VSS VDD RA1SHD_2048x32M8CCG
XI0_82 BL BL WL_78 WL_78 VSS VDD RA1SHD_2048x32M8CCG
XI0_83 BL BL WL_79 WL_79 VSS VDD RA1SHD_2048x32M8CCG
XI0_84 BL BL WL_80 WL_80 VSS VDD RA1SHD_2048x32M8CCG
XI0_85 BL BL WL_81 WL_81 VSS VDD RA1SHD_2048x32M8CCG
XI0_86 BL BL WL_82 WL_82 VSS VDD RA1SHD_2048x32M8CCG
XI0_87 BL BL WL_83 WL_83 VSS VDD RA1SHD_2048x32M8CCG
XI0_88 BL BL WL_84 WL_84 VSS VDD RA1SHD_2048x32M8CCG
XI0_89 BL BL WL_85 WL_85 VSS VDD RA1SHD_2048x32M8CCG
XI0_9 BL BL WL_5 WL_5 VSS VDD RA1SHD_2048x32M8CCG
XI0_90 BL BL WL_86 WL_86 VSS VDD RA1SHD_2048x32M8CCG
XI0_91 BL BL WL_87 WL_87 VSS VDD RA1SHD_2048x32M8CCG
XI0_92 BL BL WL_88 WL_88 VSS VDD RA1SHD_2048x32M8CCG
XI0_93 BL BL WL_89 WL_89 VSS VDD RA1SHD_2048x32M8CCG
XI0_94 BL BL WL_90 WL_90 VSS VDD RA1SHD_2048x32M8CCG
XI0_95 BL BL WL_91 WL_91 VSS VDD RA1SHD_2048x32M8CCG
XI0_96 BL BL WL_92 WL_92 VSS VDD RA1SHD_2048x32M8CCG
XI0_97 BL BL WL_93 WL_93 VSS VDD RA1SHD_2048x32M8CCG
XI0_98 BL BL WL_94 WL_94 VSS VDD RA1SHD_2048x32M8CCG
XI0_99 BL BL WL_95 WL_95 VSS VDD RA1SHD_2048x32M8CCG
XI1_10 WL_6 WL_7 VSS VDD RA1SHD_2048x32M8FCR
XI1_100 WL_96 WL_97 VSS VDD RA1SHD_2048x32M8FCR
XI1_102 WL_98 WL_99 VSS VDD RA1SHD_2048x32M8FCR
XI1_104 WL_100 WL_101 VSS VDD RA1SHD_2048x32M8FCR
XI1_106 WL_102 WL_103 VSS VDD RA1SHD_2048x32M8FCR
XI1_108 WL_104 WL_105 VSS VDD RA1SHD_2048x32M8FCR
XI1_110 WL_106 WL_107 VSS VDD RA1SHD_2048x32M8FCR
XI1_112 WL_108 WL_109 VSS VDD RA1SHD_2048x32M8FCR
XI1_114 WL_110 WL_111 VSS VDD RA1SHD_2048x32M8FCR
XI1_116 WL_112 WL_113 VSS VDD RA1SHD_2048x32M8FCR
XI1_118 WL_114 WL_115 VSS VDD RA1SHD_2048x32M8FCR
XI1_12 WL_8 WL_9 VSS VDD RA1SHD_2048x32M8FCR
XI1_120 WL_116 WL_117 VSS VDD RA1SHD_2048x32M8FCR
XI1_122 WL_118 WL_119 VSS VDD RA1SHD_2048x32M8FCR
XI1_124 WL_120 WL_121 VSS VDD RA1SHD_2048x32M8FCR
XI1_126 WL_122 WL_123 VSS VDD RA1SHD_2048x32M8FCR
XI1_128 WL_124 WL_125 VSS VDD RA1SHD_2048x32M8FCR
XI1_130 WL_126 WL_127 VSS VDD RA1SHD_2048x32M8FCR
XI1_132 WL_128 WL_129 VSS VDD RA1SHD_2048x32M8FCR
XI1_134 WL_130 WL_131 VSS VDD RA1SHD_2048x32M8FCR
XI1_136 WL_132 WL_133 VSS VDD RA1SHD_2048x32M8FCR
XI1_138 WL_134 WL_135 VSS VDD RA1SHD_2048x32M8FCR
XI1_14 WL_10 WL_11 VSS VDD RA1SHD_2048x32M8FCR
XI1_140 WL_136 WL_137 VSS VDD RA1SHD_2048x32M8FCR
XI1_142 WL_138 WL_139 VSS VDD RA1SHD_2048x32M8FCR
XI1_144 WL_140 WL_141 VSS VDD RA1SHD_2048x32M8FCR
XI1_146 WL_142 WL_143 VSS VDD RA1SHD_2048x32M8FCR
XI1_148 WL_144 WL_145 VSS VDD RA1SHD_2048x32M8FCR
XI1_150 WL_146 WL_147 VSS VDD RA1SHD_2048x32M8FCR
XI1_152 WL_148 WL_149 VSS VDD RA1SHD_2048x32M8FCR
XI1_154 WL_150 WL_151 VSS VDD RA1SHD_2048x32M8FCR
XI1_156 WL_152 WL_153 VSS VDD RA1SHD_2048x32M8FCR
XI1_158 WL_154 WL_155 VSS VDD RA1SHD_2048x32M8FCR
XI1_16 WL_12 WL_13 VSS VDD RA1SHD_2048x32M8FCR
XI1_160 WL_156 WL_157 VSS VDD RA1SHD_2048x32M8FCR
XI1_162 WL_158 WL_159 VSS VDD RA1SHD_2048x32M8FCR
XI1_164 WL_160 WL_161 VSS VDD RA1SHD_2048x32M8FCR
XI1_166 WL_162 WL_163 VSS VDD RA1SHD_2048x32M8FCR
XI1_168 WL_164 WL_165 VSS VDD RA1SHD_2048x32M8FCR
XI1_170 WL_166 WL_167 VSS VDD RA1SHD_2048x32M8FCR
XI1_172 WL_168 WL_169 VSS VDD RA1SHD_2048x32M8FCR
XI1_174 WL_170 WL_171 VSS VDD RA1SHD_2048x32M8FCR
XI1_176 WL_172 WL_173 VSS VDD RA1SHD_2048x32M8FCR
XI1_178 WL_174 WL_175 VSS VDD RA1SHD_2048x32M8FCR
XI1_18 WL_14 WL_15 VSS VDD RA1SHD_2048x32M8FCR
XI1_180 WL_176 WL_177 VSS VDD RA1SHD_2048x32M8FCR
XI1_182 WL_178 WL_179 VSS VDD RA1SHD_2048x32M8FCR
XI1_184 WL_180 WL_181 VSS VDD RA1SHD_2048x32M8FCR
XI1_186 WL_182 WL_183 VSS VDD RA1SHD_2048x32M8FCR
XI1_188 WL_184 WL_185 VSS VDD RA1SHD_2048x32M8FCR
XI1_190 WL_186 WL_187 VSS VDD RA1SHD_2048x32M8FCR
XI1_192 WL_188 WL_189 VSS VDD RA1SHD_2048x32M8FCR
XI1_194 WL_190 WL_191 VSS VDD RA1SHD_2048x32M8FCR
XI1_196 WL_192 WL_193 VSS VDD RA1SHD_2048x32M8FCR
XI1_198 WL_194 WL_195 VSS VDD RA1SHD_2048x32M8FCR
XI1_20 WL_16 WL_17 VSS VDD RA1SHD_2048x32M8FCR
XI1_200 WL_196 WL_197 VSS VDD RA1SHD_2048x32M8FCR
XI1_202 WL_198 WL_199 VSS VDD RA1SHD_2048x32M8FCR
XI1_204 WL_200 WL_201 VSS VDD RA1SHD_2048x32M8FCR
XI1_206 WL_202 WL_203 VSS VDD RA1SHD_2048x32M8FCR
XI1_208 WL_204 WL_205 VSS VDD RA1SHD_2048x32M8FCR
XI1_210 WL_206 WL_207 VSS VDD RA1SHD_2048x32M8FCR
XI1_212 WL_208 WL_209 VSS VDD RA1SHD_2048x32M8FCR
XI1_214 WL_210 WL_211 VSS VDD RA1SHD_2048x32M8FCR
XI1_216 WL_212 WL_213 VSS VDD RA1SHD_2048x32M8FCR
XI1_218 WL_214 WL_215 VSS VDD RA1SHD_2048x32M8FCR
XI1_22 WL_18 WL_19 VSS VDD RA1SHD_2048x32M8FCR
XI1_220 WL_216 WL_217 VSS VDD RA1SHD_2048x32M8FCR
XI1_222 WL_218 WL_219 VSS VDD RA1SHD_2048x32M8FCR
XI1_224 WL_220 WL_221 VSS VDD RA1SHD_2048x32M8FCR
XI1_226 WL_222 WL_223 VSS VDD RA1SHD_2048x32M8FCR
XI1_228 WL_224 WL_225 VSS VDD RA1SHD_2048x32M8FCR
XI1_230 WL_226 WL_227 VSS VDD RA1SHD_2048x32M8FCR
XI1_232 WL_228 WL_229 VSS VDD RA1SHD_2048x32M8FCR
XI1_234 WL_230 WL_231 VSS VDD RA1SHD_2048x32M8FCR
XI1_236 WL_232 WL_233 VSS VDD RA1SHD_2048x32M8FCR
XI1_238 WL_234 WL_235 VSS VDD RA1SHD_2048x32M8FCR
XI1_24 WL_20 WL_21 VSS VDD RA1SHD_2048x32M8FCR
XI1_240 WL_236 WL_237 VSS VDD RA1SHD_2048x32M8FCR
XI1_242 WL_238 WL_239 VSS VDD RA1SHD_2048x32M8FCR
XI1_244 WL_240 WL_241 VSS VDD RA1SHD_2048x32M8FCR
XI1_246 WL_242 WL_243 VSS VDD RA1SHD_2048x32M8FCR
XI1_248 WL_244 WL_245 VSS VDD RA1SHD_2048x32M8FCR
XI1_250 WL_246 WL_247 VSS VDD RA1SHD_2048x32M8FCR
XI1_252 WL_248 WL_249 VSS VDD RA1SHD_2048x32M8FCR
XI1_254 WL_250 WL_251 VSS VDD RA1SHD_2048x32M8FCR
XI1_256 WL_252 WL_253 VSS VDD RA1SHD_2048x32M8FCR
XI1_258 WL_254 WL_255 VSS VDD RA1SHD_2048x32M8FCR
XI1_26 WL_22 WL_23 VSS VDD RA1SHD_2048x32M8FCR
XI1_260 VSS VDD RA1SHD_2048x32M8FCUR
XI1_28 WL_24 WL_25 VSS VDD RA1SHD_2048x32M8FCR
XI1_30 WL_26 WL_27 VSS VDD RA1SHD_2048x32M8FCR
XI1_32 WL_28 WL_29 VSS VDD RA1SHD_2048x32M8FCR
XI1_34 WL_30 WL_31 VSS VDD RA1SHD_2048x32M8FCR
XI1_36 WL_32 WL_33 VSS VDD RA1SHD_2048x32M8FCR
XI1_38 WL_34 WL_35 VSS VDD RA1SHD_2048x32M8FCR
XI1_4 WL_0 WL_1 VSS VDD RA1SHD_2048x32M8FCR
XI1_40 WL_36 WL_37 VSS VDD RA1SHD_2048x32M8FCR
XI1_42 WL_38 WL_39 VSS VDD RA1SHD_2048x32M8FCR
XI1_44 WL_40 WL_41 VSS VDD RA1SHD_2048x32M8FCR
XI1_46 WL_42 WL_43 VSS VDD RA1SHD_2048x32M8FCR
XI1_48 WL_44 WL_45 VSS VDD RA1SHD_2048x32M8FCR
XI1_50 WL_46 WL_47 VSS VDD RA1SHD_2048x32M8FCR
XI1_52 WL_48 WL_49 VSS VDD RA1SHD_2048x32M8FCR
XI1_54 WL_50 WL_51 VSS VDD RA1SHD_2048x32M8FCR
XI1_56 WL_52 WL_53 VSS VDD RA1SHD_2048x32M8FCR
XI1_58 WL_54 WL_55 VSS VDD RA1SHD_2048x32M8FCR
XI1_6 WL_2 WL_3 VSS VDD RA1SHD_2048x32M8FCR
XI1_60 WL_56 WL_57 VSS VDD RA1SHD_2048x32M8FCR
XI1_62 WL_58 WL_59 VSS VDD RA1SHD_2048x32M8FCR
XI1_64 WL_60 WL_61 VSS VDD RA1SHD_2048x32M8FCR
XI1_66 WL_62 WL_63 VSS VDD RA1SHD_2048x32M8FCR
XI1_68 WL_64 WL_65 VSS VDD RA1SHD_2048x32M8FCR
XI1_70 WL_66 WL_67 VSS VDD RA1SHD_2048x32M8FCR
XI1_72 WL_68 WL_69 VSS VDD RA1SHD_2048x32M8FCR
XI1_74 WL_70 WL_71 VSS VDD RA1SHD_2048x32M8FCR
XI1_76 WL_72 WL_73 VSS VDD RA1SHD_2048x32M8FCR
XI1_78 WL_74 WL_75 VSS VDD RA1SHD_2048x32M8FCR
XI1_8 WL_4 WL_5 VSS VDD RA1SHD_2048x32M8FCR
XI1_80 WL_76 WL_77 VSS VDD RA1SHD_2048x32M8FCR
XI1_82 WL_78 WL_79 VSS VDD RA1SHD_2048x32M8FCR
XI1_84 WL_80 WL_81 VSS VDD RA1SHD_2048x32M8FCR
XI1_86 WL_82 WL_83 VSS VDD RA1SHD_2048x32M8FCR
XI1_88 WL_84 WL_85 VSS VDD RA1SHD_2048x32M8FCR
XI1_90 WL_86 WL_87 VSS VDD RA1SHD_2048x32M8FCR
XI1_92 WL_88 WL_89 VSS VDD RA1SHD_2048x32M8FCR
XI1_94 WL_90 WL_91 VSS VDD RA1SHD_2048x32M8FCR
XI1_96 WL_92 WL_93 VSS VDD RA1SHD_2048x32M8FCR
XI1_98 WL_94 WL_95 VSS VDD RA1SHD_2048x32M8FCR
.ENDS RA1SHD_2048x32M8LEFT_CAP
****
.SUBCKT RA1SHD_2048x32M8FCBWRO8 BWEN D Q VSS VDD
** RA1SHD_2048x32M8FCBWRO8: 2 flat devices **
d1 VSS Q DN 0.2304P 2.32U
d2 VSS D DN 0.2304P 2.32U
.ENDS RA1SHD_2048x32M8FCBWRO8
****
.SUBCKT RA1SHD_2048x32M8IO8 BWE BWEMX BWEN D DI_ DPN DPU DW DW_ D_ GBWEN GTP
+  OE_ Q QI SP STUBWE STUBWEI UTIDMX WE VSS VDD
** RA1SHD_2048x32M8IO8: 60 flat devices **
m1 QI DPU VSS VSS N L=0.18U W=3.45U AD=1.656P PD=4.41U AS=1.656P PS=4.41U
m10 QPD OEI_ VSS VSS N L=0.18U W=0.72U AD=0.3456P PD=1.68U AS=0.3456P PS=1.68U
m11 QIL QI VDD VDD P L=0.18U W=1.27U AD=0.6096P PD=2.23U AS=0.6096P PS=2.23U
m12 QIL QI VSS VSS N L=0.18U W=0.72U AD=0.3456P PD=1.68U AS=0.3456P PS=1.68U
m13 SPN SP VDD VDD P L=0.18U W=0.47U AD=0.2256P PD=1.43U AS=0.2256P PS=1.43U
m14 SPN SP VSS VSS N L=0.18U W=0.31U AD=0.1488P PD=1.27U AS=0.1488P PS=1.27U
m15 DWPD GTPND DWI VSS N L=0.18U W=0.72U AD=0.3456P PD=1.68U AS=0.3456P
+  PS=1.68U
m16 DWPD DW VDD VDD P L=0.27U W=0.22U AD=0.1056P PD=1.18U AS=0.1056P PS=1.18U
m17 DWPD DW VSS VSS N L=0.54U W=0.22U AD=0.1056P PD=1.18U AS=0.1056P PS=1.18U
m18 DWPD GTP DWI VDD P L=0.18U W=0.91U AD=0.4368P PD=1.87U AS=0.4368P PS=1.87U
m19 DW_PU GTPND DNWI VSS N L=0.18U W=0.72U AD=0.3456P PD=1.68U AS=0.3456P
+  PS=1.68U
m2 QI DPN VDD VDD P L=0.18U W=9.12U AD=4.3776P PD=10.08U AS=4.3776P PS=10.08U
m20 DW_PU GTP DNWI VDD P L=0.18U W=0.91U AD=0.4368P PD=1.87U AS=0.4368P
+  PS=1.87U
m21 GTPND GTP VDD VDD P L=0.18U W=0.5U AD=0.24P PD=1.46U AS=0.24P PS=1.46U
m22 GTPND GTP VSS VSS N L=0.18U W=0.34U AD=0.1632P PD=1.3U AS=0.1632P PS=1.3U
m23 DI DI_ VDD VDD P L=0.18U W=1.82U AD=0.8736P PD=2.78U AS=0.8736P PS=2.78U
m24 DI DI_ VSS VSS N L=0.18U W=0.89U AD=0.4272P PD=1.85U AS=0.4272P PS=1.85U
m25 DN DI VDD VDD P L=0.18U W=1.25U AD=0.6P PD=2.21U AS=0.6P PS=2.21U
m26 DN DI VSS VSS N L=0.18U W=0.61U AD=0.2928P PD=1.57U AS=0.2928P PS=1.57U
m27 WEI N58 VDD VDD P L=0.18U W=1.48U AD=0.7104P PD=2.44U AS=0.7104P PS=2.44U
m28 WEI N58 VSS VSS N L=0.18U W=0.86U AD=0.4128P PD=1.82U AS=0.4128P PS=1.82U
m29 OEI OEI_ VDD VDD P L=0.18U W=1.23U AD=0.5904P PD=2.19U AS=0.5904P PS=2.19U
m3 Q QPU VDD VDD P L=0.18U W=10.8U AD=5.184P PD=11.76U AS=5.184P PS=11.76U
m30 OEI OEI_ VSS VSS N L=0.18U W=0.64U AD=0.3072P PD=1.6U AS=0.3072P PS=1.6U
m31 QI SP N84 VDD P L=0.18U W=2U AD=0.96P PD=2.96U AS=0.96P PS=2.96U
m32 N84 QIL VDD VDD P L=0.18U W=2U AD=0.96P PD=2.96U AS=0.96P PS=2.96U
m33 QI SPN N83 VSS N L=0.18U W=2U AD=0.96P PD=2.96U AS=0.96P PS=2.96U
m34 N83 QIL VSS VSS N L=0.18U W=2U AD=0.96P PD=2.96U AS=0.96P PS=2.96U
m35 N41 OE_ VDD VDD P L=0.18U W=0.78U AD=0.3744P PD=1.74U AS=0.3744P PS=1.74U
m36 N41 OE_ VSS VSS N L=0.18U W=0.4U AD=0.192P PD=1.36U AS=0.192P PS=1.36U
m37 N58 WE VDD VDD P L=0.18U W=0.58U AD=0.2784P PD=1.54U AS=0.2784P PS=1.54U
m38 N58 WE VSS VSS N L=0.18U W=0.29U AD=0.1392P PD=1.25U AS=0.1392P PS=1.25U
m39 DWI WEI VDD VDD P L=0.18U W=1.77U AD=0.8496P PD=2.73U AS=0.8496P PS=2.73U
m4 Q QPD VSS VSS N L=0.18U W=7.2U AD=3.456P PD=8.16U AS=3.456P PS=8.16U
m40 N85 WEI VSS VSS N L=0.18U W=1.58U AD=0.7584P PD=2.54U AS=0.7584P PS=2.54U
m41 DWI DI VDD VDD P L=0.18U W=1.77U AD=0.8496P PD=2.73U AS=0.8496P PS=2.73U
m42 DWI DI N85 VSS N L=0.18U W=1.58U AD=0.7584P PD=2.54U AS=0.7584P PS=2.54U
m43 DNWI WEI VDD VDD P L=0.18U W=1.77U AD=0.8496P PD=2.73U AS=0.8496P PS=2.73U
m44 N86 WEI VSS VSS N L=0.18U W=1.58U AD=0.7584P PD=2.54U AS=0.7584P PS=2.54U
m45 DNWI DN VDD VDD P L=0.18U W=1.77U AD=0.8496P PD=2.73U AS=0.8496P PS=2.73U
m46 DNWI DN N86 VSS N L=0.18U W=1.58U AD=0.7584P PD=2.54U AS=0.7584P PS=2.54U
m47 D_ D VDD VDD P L=0.18U W=0.71U AD=0.3408P PD=1.67U AS=0.3408P PS=1.67U
m48 D_ D VSS VSS N L=0.18U W=0.35U AD=0.168P PD=1.31U AS=0.168P PS=1.31U
m49 QPU OEI_ QI VDD P L=0.18U W=0.34U AD=0.1632P PD=1.3U AS=0.1632P PS=1.3U